CemigDFeeders/PSAU13/PSAU13SegmentosMT.dss
new line.TR12125312 bus1=BMT162141345.1.2.3,bus2=BMT4169928B.1.2.3,Phases=3,Linecode=CABA06_3_3,Length=0.014322000,Units=km
new line.TR12125317 bus1=BMT4169928B.1.2.3,bus2=BMT4169921B.1.2.3,Phases=3,Linecode=CABA06_3_3,Length=0.033744000,Units=km
new line.TR12125326 bus1=BMT4169921B.1.2.3,bus2=BMT4169914B.1.2.3,Phases=3,Linecode=CABA06_3_3,Length=0.032766000,Units=km
new line.TR12125332 bus1=BMT4169914B.1.2.3,bus2=BMT4169907B.1.2.3,Phases=3,Linecode=CABA06_3_3,Length=0.033251000,Units=km
new line.TR12125333 bus1=BMT4169907B.1.2.3,bus2=BMT162141347.1.2.3,Phases=3,Linecode=CABA06_3_3,Length=0.031330000,Units=km
new line.TR12160620 bus1=BMT162346817.1.2.3,bus2=BMT8757212B.1.2.3,Phases=3,Linecode=CABA06_3_3,Length=0.040124000,Units=km
new line.TR12160630 bus1=BMT8757212B.1.2.3,bus2=BMT8757213B.1.2.3,Phases=3,Linecode=CABA06_3_3,Length=0.043059000,Units=km
new line.TR12160643 bus1=BMT8757213B.1.2.3,bus2=BMT8757215B.1.2.3,Phases=3,Linecode=CABA06_3_3,Length=0.024028000,Units=km
new line.TR12160650 bus1=BMT8757215B.1.2.3,bus2=BMT8757217B.1.2.3,Phases=3,Linecode=CABA06_3_3,Length=0.022007000,Units=km
new line.TR12160651 bus1=BMT8757217B.1.2.3,bus2=BMT8757249B.1.2.3,Phases=3,Linecode=CABA06_3_3,Length=0.038960000,Units=km
new line.TR12160654 bus1=BMT8757249B.1.2.3,bus2=BMT8757258B.1.2.3,Phases=3,Linecode=CABA06_3_3,Length=0.024028000,Units=km
new line.TR12160661 bus1=BMT8757258B.1.2.3,bus2=BMT162346818.1.2.3,Phases=3,Linecode=CABA06_3_3,Length=0.041122000,Units=km
new line.TR12160681 bus1=BMT162346818.1.2.3,bus2=BMT162346819.1.2.3,Phases=3,Linecode=CABA06_3_3,Length=0.031074000,Units=km
new line.TR12160684 bus1=BMT162346819.1.2.3,bus2=BMT8757260B.1.2.3,Phases=3,Linecode=CABA06_3_3,Length=0.008003000,Units=km
new line.TR12160690 bus1=BMT8757260B.1.2.3,bus2=BMT152314375.1.2.3,Phases=3,Linecode=CABA06_3_3,Length=0.028080000,Units=km
new line.TR12160694 bus1=BMT162346819.1.2.3,bus2=BMT8757222B.1.2.3,Phases=3,Linecode=CABA06_3_3,Length=0.009058000,Units=km
new line.TR12160695 bus1=BMT8757222B.1.2.3,bus2=BMT8757237B.1.2.3,Phases=3,Linecode=CABA06_3_3,Length=0.033025000,Units=km
new line.TR12160706 bus1=BMT8757237B.1.2.3,bus2=BMT152314328.1.2.3,Phases=3,Linecode=CABA06_3_3,Length=0.053616000,Units=km
new line.TR12160719 bus1=BMT152315210.1.2.3,bus2=BMT152315211.1.2.3,Phases=3,Linecode=CAB103_3_3,Length=0.014871000,Units=km
new line.TR12161123 bus1=BMT161032669.2,bus2=BMT161032671.2,Phases=1,Linecode=CAB103_3_1,Length=0.032025000,Units=km
new line.TR12161132 bus1=BMT152314375.1.2.3,bus2=BMT8757262B.1.2.3,Phases=3,Linecode=CABA06_3_3,Length=0.033025000,Units=km
new line.TR12161133 bus1=BMT8757262B.1.2.3,bus2=BMT8757195B.1.2.3,Phases=3,Linecode=CABA06_3_3,Length=0.027008000,Units=km
new line.TR12161134 bus1=BMT8757195B.1.2.3,bus2=BMT8757192B.1.2.3,Phases=3,Linecode=CABA06_3_3,Length=0.027522000,Units=km
new line.TR12161152 bus1=BMT8757192B.1.2.3,bus2=BMT162346820.1.2.3,Phases=3,Linecode=CABA06_3_3,Length=0.026579000,Units=km
new line.TR12161153 bus1=BMT162346820.1.2.3,bus2=BMT8757184B.1.2.3,Phases=3,Linecode=CABA06_3_3,Length=0.037347000,Units=km
new line.TR12161154 bus1=BMT162346820.1.2.3,bus2=BMT8757197B.1.2.3,Phases=3,Linecode=CABA06_3_3,Length=0.007283000,Units=km
new line.TR12161156 bus1=BMT8757197B.1.2.3,bus2=BMT8757201B.1.2.3,Phases=3,Linecode=CABA06_3_3,Length=0.037226000,Units=km
new line.TR12161160 bus1=BMT8757201B.1.2.3,bus2=BMT8757202B.1.2.3,Phases=3,Linecode=CABA06_3_3,Length=0.035139000,Units=km
new line.TR12161161 bus1=BMT8757202B.1.2.3,bus2=BMT162346822.1.2.3,Phases=3,Linecode=CABA06_3_3,Length=0.031154000,Units=km
new line.TR12161168 bus1=BMT162346819.1.2.3,bus2=BMT8757220B.1.2.3,Phases=3,Linecode=CABA06_3_3,Length=0.021006000,Units=km
new line.TR12161169 bus1=BMT3996895B.2,bus2=BMT8757765B.2,Phases=1,Linecode=CABA06_3_1,Length=0.028293000,Units=km
new line.TR12161170 bus1=BMT3996902B.2,bus2=BMT8757765B.2,Phases=1,Linecode=CABA06_3_1,Length=0.007002000,Units=km
new line.TR12161182 bus1=BMT8757184B.1.2.3,bus2=BMT8757149B.1.2.3,Phases=3,Linecode=CABA06_3_3,Length=0.037958000,Units=km
new line.TR12161183 bus1=BMT8757149B.1.2.3,bus2=BMT8757146B.1.2.3,Phases=3,Linecode=CABA06_3_3,Length=0.039572000,Units=km
new line.TR12161184 bus1=BMT8757146B.1.2.3,bus2=BMT8757145B.1.2.3,Phases=3,Linecode=CABA06_3_3,Length=0.035704000,Units=km
new line.TR12161191 bus1=BMT8757145B.1.2.3,bus2=BMT8757129B.1.2.3,Phases=3,Linecode=CABA06_3_3,Length=0.033551000,Units=km
new line.TR12161194 bus1=BMT8757129B.1.2.3,bus2=BMT162346821.1.2.3,Phases=3,Linecode=CABA06_3_3,Length=0.028293000,Units=km
new line.TR12162118 bus1=BMT165920948.1.2.3,bus2=BMT8758501B.1.2.3,Phases=3,Linecode=CABA06_3_3,Length=0.012210000,Units=km
new line.TR12162121 bus1=BMT8758501B.1.2.3,bus2=BMT165920950.1.2.3,Phases=3,Linecode=CABA06_3_3,Length=0.039673000,Units=km
new line.TR12162122 bus1=BMT165920950.1.2.3,bus2=BMT165920951.1.2.3,Phases=3,Linecode=CABA06_3_3,Length=0.040012000,Units=km
new line.TR12162123 bus1=BMT165920951.1.2.3,bus2=BMT8758516B.1.2.3,Phases=3,Linecode=CABA06_3_3,Length=0.038011000,Units=km
new line.TR12162124 bus1=BMT8758516B.1.2.3,bus2=BMT8758517B.1.2.3,Phases=3,Linecode=CABA06_3_3,Length=0.038011000,Units=km
new line.TR12162125 bus1=BMT8758517B.1.2.3,bus2=BMT165920954.1.2.3,Phases=3,Linecode=CABA06_3_3,Length=0.028008000,Units=km
new line.TR12162126 bus1=BMT165920951.1.2.3,bus2=BMT8758553B.1.2.3,Phases=3,Linecode=CABA06_3_3,Length=0.005387000,Units=km
new line.TR12162127 bus1=BMT8758553B.1.2.3,bus2=BMT165920955.1.2.3,Phases=3,Linecode=CABA06_3_3,Length=0.032212000,Units=km
new line.TR12162129 bus1=BMT8758557B.1.2.3,bus2=BMT8758556B.1.2.3,Phases=3,Linecode=CABA06_3_3,Length=0.030241000,Units=km
new line.TR12162133 bus1=BMT165920950.1.2.3,bus2=BMT8758508B.1.2.3,Phases=3,Linecode=CABA06_3_3,Length=0.022810000,Units=km
new line.TR12162134 bus1=BMT8758508B.1.2.3,bus2=BMT8758511B.1.2.3,Phases=3,Linecode=CABA06_3_3,Length=0.036411000,Units=km
new line.TR12162137 bus1=BMT8758511B.1.2.3,bus2=BMT165920952.1.2.3,Phases=3,Linecode=CABA06_3_3,Length=0.034215000,Units=km
new line.TR12162138 bus1=BMT165920952.1.2.3,bus2=BMT8758543B.1.2.3,Phases=3,Linecode=CABA06_3_3,Length=0.037024000,Units=km
new line.TR12162139 bus1=BMT8758543B.1.2.3,bus2=BMT8758544B.1.2.3,Phases=3,Linecode=CABA06_3_3,Length=0.022810000,Units=km
new line.TR12162140 bus1=BMT8758544B.1.2.3,bus2=BMT8758546B.1.2.3,Phases=3,Linecode=CABA06_3_3,Length=0.024215000,Units=km
new line.TR12162150 bus1=BMT8758546B.1.2.3,bus2=BMT8758547B.1.2.3,Phases=3,Linecode=CABA06_3_3,Length=0.024215000,Units=km
new line.TR12162152 bus1=BMT8758547B.1.2.3,bus2=BMT8758538B.1.2.3,Phases=3,Linecode=CABA06_3_3,Length=0.027811000,Units=km
new line.TR12162153 bus1=BMT8758538B.1.2.3,bus2=BMT8758577B.1.2.3,Phases=3,Linecode=CABA06_3_3,Length=0.021407000,Units=km
new line.TR12230273 bus1=BMT2957311B.1.2.3,bus2=BMT8831349B.1.2.3,Phases=3,Linecode=CABA06_3_3,Length=0.028662000,Units=km
new line.TR12230274 bus1=BMT8831349B.1.2.3,bus2=BMT170755030.1.2.3,Phases=3,Linecode=CABA06_3_3,Length=0.015005000,Units=km
new line.TR12230276 bus1=BMT170755030.1.2.3,bus2=BMT8831352B.1.2.3,Phases=3,Linecode=CABA06_3_3,Length=0.037747000,Units=km
new line.TR12230279 bus1=BMT8831352B.1.2.3,bus2=BMT8831353B.1.2.3,Phases=3,Linecode=CABA06_3_3,Length=0.025503000,Units=km
new line.TR12230280 bus1=BMT8831353B.1.2.3,bus2=BMT8831354B.1.2.3,Phases=3,Linecode=CABA06_3_3,Length=0.026841000,Units=km
new line.TR12230281 bus1=BMT8831354B.1.2.3,bus2=BMT170755031.1.2.3,Phases=3,Linecode=CABA06_3_3,Length=0.023417000,Units=km
new line.TR12230284 bus1=BMT170755031.1.2.3,bus2=BMT170755033.1.2.3,Phases=3,Linecode=CABA06_3_3,Length=0.024604000,Units=km
new line.TR12230285 bus1=BMT170755031.1.2.3,bus2=BMT8831366B.1.2.3,Phases=3,Linecode=CABA06_3_3,Length=0.025087000,Units=km
new line.TR12230286 bus1=BMT8831366B.1.2.3,bus2=BMT8831367B.1.2.3,Phases=3,Linecode=CABA06_3_3,Length=0.033625000,Units=km
new line.TR12230289 bus1=BMT8831367B.1.2.3,bus2=BMT8831368B.1.2.3,Phases=3,Linecode=CABA06_3_3,Length=0.007618000,Units=km
new line.TR12230290 bus1=BMT8831368B.1.2.3,bus2=BMT8831374B.1.2.3,Phases=3,Linecode=CABA06_3_3,Length=0.025306000,Units=km
new line.TR12230291 bus1=BMT8831374B.1.2.3,bus2=BMT8831376B.1.2.3,Phases=3,Linecode=CABA06_3_3,Length=0.036780000,Units=km
new line.TR12230313 bus1=BMT8831376B.1.2.3,bus2=BMT152431655.1.2.3,Phases=3,Linecode=CABA06_3_3,Length=0.030092000,Units=km
new line.TR12232162 bus1=BMT171435853.3,bus2=BMT171435856.3,Phases=1,Linecode=CAB103_3_1,Length=0.013420000,Units=km
new line.TR12267431 bus1=BMT159943449.3,bus2=BMT159943450.3,Phases=1,Linecode=CAB103_3_1,Length=0.042732000,Units=km
new line.TR12308225 bus1=BMT2653896B.1.2.3,bus2=BMT155623621.1.2.3,Phases=3,Linecode=CABA06_3_3,Length=0.017268000,Units=km
new line.TR12308226 bus1=BMT155623621.1.2.3,bus2=BMT2653889B.1.2.3,Phases=3,Linecode=CABA06_3_3,Length=0.017268000,Units=km
new line.TR12308237 bus1=BMT8910158B.1.2.3,bus2=BMT155623623.1.2.3,Phases=3,Linecode=CABA06_3_3,Length=0.028662000,Units=km
new line.TR12308247 bus1=BMT155623623.1.2.3,bus2=BMT8910161B.1.2.3,Phases=3,Linecode=CABA06_3_3,Length=0.040620000,Units=km
new line.TR12308249 bus1=BMT8910161B.1.2.3,bus2=BMT8910163B.1.2.3,Phases=3,Linecode=CABA06_3_3,Length=0.029078000,Units=km
new line.TR12308382 bus1=BMT8910163B.1.2.3,bus2=BMT8910179B.1.2.3,Phases=3,Linecode=CABA06_3_3,Length=0.029842000,Units=km
new line.TR12308383 bus1=BMT8910179B.1.2.3,bus2=BMT8910186B.1.2.3,Phases=3,Linecode=CABA06_3_3,Length=0.028469000,Units=km
new line.TR12308384 bus1=BMT8910186B.1.2.3,bus2=BMT8910210B.1.2.3,Phases=3,Linecode=CABA06_3_3,Length=0.030092000,Units=km
new line.TR12308386 bus1=BMT8910210B.1.2.3,bus2=BMT155623624.1.2.3,Phases=3,Linecode=CABA06_3_3,Length=0.020525000,Units=km
new line.TR12308387 bus1=BMT155623624.1.2.3,bus2=BMT8910220B.1.2.3,Phases=3,Linecode=CABA06_3_3,Length=0.035816000,Units=km
new line.TR12308388 bus1=BMT8910220B.1.2.3,bus2=BMT8910224B.1.2.3,Phases=3,Linecode=CABA06_3_3,Length=0.037654000,Units=km
new line.TR12308389 bus1=BMT8910224B.1.2.3,bus2=BMT8910231B.1.2.3,Phases=3,Linecode=CABA06_3_3,Length=0.040062000,Units=km
new line.TR12308391 bus1=BMT8910231B.1.2.3,bus2=BMT8910236B.1.2.3,Phases=3,Linecode=CABA06_3_3,Length=0.039024000,Units=km
new line.TR12308392 bus1=BMT8910236B.1.2.3,bus2=BMT8910240B.1.2.3,Phases=3,Linecode=CABA06_3_3,Length=0.044024000,Units=km
new line.TR12308393 bus1=BMT8910240B.1.2.3,bus2=BMT8910246B.1.2.3,Phases=3,Linecode=CABA06_3_3,Length=0.045290000,Units=km
new line.TR12308394 bus1=BMT8910246B.1.2.3,bus2=BMT155623629.1.2.3,Phases=3,Linecode=CABA06_3_3,Length=0.043117000,Units=km
new line.TR12308395 bus1=BMT155623629.1.2.3,bus2=BMT8910319B.1.2.3,Phases=3,Linecode=CABA06_3_3,Length=0.033625000,Units=km
new line.TR12308396 bus1=BMT8910319B.1.2.3,bus2=BMT8910489B.1.2.3,Phases=3,Linecode=CABA06_3_3,Length=0.035394000,Units=km
new line.TR12308397 bus1=BMT8910489B.1.2.3,bus2=BMT8910491B.1.2.3,Phases=3,Linecode=CABA06_3_3,Length=0.036685000,Units=km
new line.TR12308398 bus1=BMT8910491B.1.2.3,bus2=BMT155623630.1.2.3,Phases=3,Linecode=CABA06_3_3,Length=0.037667000,Units=km
new line.TR12308399 bus1=BMT155623623.1.2.3,bus2=BMT8910545B.1.2.3,Phases=3,Linecode=CABA06_3_3,Length=0.042214000,Units=km
new line.TR12308402 bus1=BMT8910545B.1.2.3,bus2=BMT8910543B.1.2.3,Phases=3,Linecode=CABA06_3_3,Length=0.034550000,Units=km
new line.TR12308403 bus1=BMT8910543B.1.2.3,bus2=BMT155623625.1.2.3,Phases=3,Linecode=CABA06_3_3,Length=0.032290000,Units=km
new line.TR12308404 bus1=BMT155623625.1.2.3,bus2=BMT155623626.1.2.3,Phases=3,Linecode=CABA06_3_3,Length=0.033025000,Units=km
new line.TR12308405 bus1=BMT155623626.1.2.3,bus2=BMT8910566B.1.2.3,Phases=3,Linecode=CABA06_3_3,Length=0.040024000,Units=km
new line.TR12308406 bus1=BMT8910566B.1.2.3,bus2=BMT8910572B.1.2.3,Phases=3,Linecode=CABA06_3_3,Length=0.043579000,Units=km
new line.TR12308407 bus1=BMT8910572B.1.2.3,bus2=BMT8910577B.1.2.3,Phases=3,Linecode=CABA06_3_3,Length=0.036726000,Units=km
new line.TR12308408 bus1=BMT8910577B.1.2.3,bus2=BMT8910580B.1.2.3,Phases=3,Linecode=CABA06_3_3,Length=0.039011000,Units=km
new line.TR12308409 bus1=BMT8910580B.1.2.3,bus2=BMT8910582B.1.2.3,Phases=3,Linecode=CABA06_3_3,Length=0.039024000,Units=km
new line.TR12308410 bus1=BMT8910582B.1.2.3,bus2=BMT8910584B.1.2.3,Phases=3,Linecode=CABA06_3_3,Length=0.022810000,Units=km
new line.TR12308411 bus1=BMT8910584B.1.2.3,bus2=BMT8910586B.1.2.3,Phases=3,Linecode=CABA06_3_3,Length=0.023331000,Units=km
new line.TR12308412 bus1=BMT8910586B.1.2.3,bus2=BMT155623628.1.2.3,Phases=3,Linecode=CABA06_3_3,Length=0.023352000,Units=km
new line.TR12308422 bus1=BMT155623625.1.2.3,bus2=BMT8910534B.1.2.3,Phases=3,Linecode=CABA06_3_3,Length=0.017035000,Units=km
new line.TR12308423 bus1=BMT8910534B.1.2.3,bus2=BMT8910531B.1.2.3,Phases=3,Linecode=CABA06_3_3,Length=0.022097000,Units=km
new line.TR12308424 bus1=BMT8910531B.1.2.3,bus2=BMT8910530B.1.2.3,Phases=3,Linecode=CABA06_3_3,Length=0.043117000,Units=km
new line.TR12308425 bus1=BMT8910530B.1.2.3,bus2=BMT8910527B.1.2.3,Phases=3,Linecode=CABA06_3_3,Length=0.042024000,Units=km
new line.TR12308426 bus1=BMT8910527B.1.2.3,bus2=BMT8910523B.1.2.3,Phases=3,Linecode=CABA06_3_3,Length=0.037227000,Units=km
new line.TR12308427 bus1=BMT8910523B.1.2.3,bus2=BMT155623627.1.2.3,Phases=3,Linecode=CABA06_3_3,Length=0.029842000,Units=km
new line.TR12350026 bus1=BMT1020831B.1.2.3,bus2=BMT156632389.1.2.3,Phases=3,Linecode=CAB107_3_3,Length=0.020106000,Units=km
new line.TR12350027 bus1=BMT156632389.1.2.3,bus2=BMT1020803B.1.2.3,Phases=3,Linecode=CAB107_3_3,Length=0.008003000,Units=km
new line.TR12350035 bus1=BMT164138539.1.2.3,bus2=BMT1020824B.1.2.3,Phases=3,Linecode=CABA06_3_3,Length=0.005387000,Units=km
new line.TR12350140 bus1=BMT1020824B.1.2.3,bus2=BMT8953674B.1.2.3,Phases=3,Linecode=CABA06_3_3,Length=0.037374000,Units=km
new line.TR12350141 bus1=BMT8953674B.1.2.3,bus2=BMT164138540.1.2.3,Phases=3,Linecode=CABA06_3_3,Length=0.023094000,Units=km
new line.TR12350142 bus1=BMT164138540.1.2.3,bus2=BMT8953680B.1.2.3,Phases=3,Linecode=CABA06_3_3,Length=0.021220000,Units=km
new line.TR12350143 bus1=BMT8953680B.1.2.3,bus2=BMT8953683B.1.2.3,Phases=3,Linecode=CABA06_3_3,Length=0.031025000,Units=km
new line.TR12350144 bus1=BMT8953683B.1.2.3,bus2=BMT8953688B.1.2.3,Phases=3,Linecode=CABA06_3_3,Length=0.039127000,Units=km
new line.TR12350145 bus1=BMT8953688B.1.2.3,bus2=BMT8953689B.1.2.3,Phases=3,Linecode=CABA06_3_3,Length=0.037011000,Units=km
new line.TR12350146 bus1=BMT8953689B.1.2.3,bus2=BMT164138541.1.2.3,Phases=3,Linecode=CABA06_3_3,Length=0.041024000,Units=km
new line.TR12350151 bus1=BMT164138540.1.2.3,bus2=BMT8953818B.1.2.3,Phases=3,Linecode=CABA06_3_3,Length=0.039862000,Units=km
new line.TR12350152 bus1=BMT8953818B.1.2.3,bus2=BMT164138542.1.2.3,Phases=3,Linecode=CABA06_3_3,Length=0.039572000,Units=km
new line.TR12350164 bus1=BMT154231172.1.2.3,bus2=BMT8953847B.1.2.3,Phases=3,Linecode=CABA06_3_3,Length=0.021267000,Units=km
new line.TR12350165 bus1=BMT8953847B.1.2.3,bus2=BMT8738883B.1.2.3,Phases=3,Linecode=CABA06_3_3,Length=0.025503000,Units=km
new line.TR12429774 bus1=BMT4099501B.1.2.3,bus2=BMT4099606B.1.2.3,Phases=3,Linecode=CABA06_3_3,Length=0.041061000,Units=km
new line.TR12429775 bus1=BMT4099606B.1.2.3,bus2=BMT4099613B.1.2.3,Phases=3,Linecode=CABA06_3_3,Length=0.025028000,Units=km
new line.TR12429776 bus1=BMT4099613B.1.2.3,bus2=BMT4099620B.1.2.3,Phases=3,Linecode=CABA06_3_3,Length=0.026085000,Units=km
new line.TR12429777 bus1=BMT4099620B.1.2.3,bus2=BMT4011994B.1.2.3,Phases=3,Linecode=CABA06_3_3,Length=0.051054000,Units=km
new line.TR12429778 bus1=BMT4011994B.1.2.3,bus2=BMT9035721B.1.2.3,Phases=3,Linecode=CABA06_3_3,Length=0.006405000,Units=km
new line.TR12429779 bus1=BMT9035721B.1.2.3,bus2=BMT159349709.1.2.3,Phases=3,Linecode=CABA06_3_3,Length=0.031074000,Units=km
new line.TR12429781 bus1=BMT159349710.1.2.3,bus2=BMT159349711.1.2.3,Phases=3,Linecode=CABA06_3_3,Length=0.041449000,Units=km
new line.TR12429782 bus1=BMT159349711.1.2.3,bus2=BMT9035731B.1.2.3,Phases=3,Linecode=CABA06_3_3,Length=0.025028000,Units=km
new line.TR12429783 bus1=BMT9035731B.1.2.3,bus2=BMT9035732B.1.2.3,Phases=3,Linecode=CABA06_3_3,Length=0.025087000,Units=km
new line.TR12429785 bus1=BMT9035732B.1.2.3,bus2=BMT159349712.1.2.3,Phases=3,Linecode=CABA06_3_3,Length=0.038064000,Units=km
new line.TR12429786 bus1=BMT159349712.1.2.3,bus2=BMT159349714.1.2.3,Phases=3,Linecode=CABA06_3_3,Length=0.040062000,Units=km
new line.TR12429787 bus1=BMT159349712.1.2.3,bus2=BMT9035858B.1.2.3,Phases=3,Linecode=CABA06_3_3,Length=0.035025000,Units=km
new line.TR12429788 bus1=BMT9035858B.1.2.3,bus2=BMT159349715.1.2.3,Phases=3,Linecode=CABA06_3_3,Length=0.027027000,Units=km
new line.TR12429789 bus1=BMT159349715.1.2.3,bus2=BMT9035856B.1.2.3,Phases=3,Linecode=CABA06_3_3,Length=0.013043000,Units=km
new line.TR12429791 bus1=BMT9035856B.1.2.3,bus2=BMT9035863B.1.2.3,Phases=3,Linecode=CABA06_3_3,Length=0.026027000,Units=km
new line.TR12429792 bus1=BMT9035863B.1.2.3,bus2=BMT159349716.1.2.3,Phases=3,Linecode=CABA06_3_3,Length=0.025028000,Units=km
new line.TR12429793 bus1=BMT159349715.1.2.3,bus2=BMT9035758B.1.2.3,Phases=3,Linecode=CABA06_3_3,Length=0.013004000,Units=km
new line.TR12429794 bus1=BMT9035758B.1.2.3,bus2=BMT159349717.1.2.3,Phases=3,Linecode=CABA06_3_3,Length=0.035067000,Units=km
new line.TR12429795 bus1=BMT159349715.1.2.3,bus2=BMT9035830B.1.2.3,Phases=3,Linecode=CABA06_3_3,Length=0.034142000,Units=km
new line.TR12429796 bus1=BMT159349716.1.2.3,bus2=BMT9035835B.1.2.3,Phases=3,Linecode=CABA06_3_3,Length=0.021030000,Units=km
new line.TR12429797 bus1=BMT159349716.1.2.3,bus2=BMT159349718.1.2.3,Phases=3,Linecode=CABA06_3_3,Length=0.020031000,Units=km
new line.TR12429799 bus1=BMT159349716.1.2.3,bus2=BMT9035862B.1.2.3,Phases=3,Linecode=CABA06_3_3,Length=0.013043000,Units=km
new line.TR12429801 bus1=BMT9035862B.1.2.3,bus2=BMT9035866B.1.2.3,Phases=3,Linecode=CABA06_3_3,Length=0.036066000,Units=km
new line.TR12429804 bus1=BMT9035866B.1.2.3,bus2=BMT159349719.1.2.3,Phases=3,Linecode=CABA06_3_3,Length=0.018607000,Units=km
new line.TR12429805 bus1=BMT159349719.1.2.3,bus2=BMT9035771B.1.2.3,Phases=3,Linecode=CABA06_3_3,Length=0.037024000,Units=km
new line.TR12429807 bus1=BMT9035771B.1.2.3,bus2=BMT9035772B.1.2.3,Phases=3,Linecode=CABA06_3_3,Length=0.043117000,Units=km
new line.TR12429809 bus1=BMT9035772B.1.2.3,bus2=BMT159349720.1.2.3,Phases=3,Linecode=CABA06_3_3,Length=0.007074000,Units=km
new line.TR12429811 bus1=BMT159349720.1.2.3,bus2=BMT9035774B.1.2.3,Phases=3,Linecode=CABA06_3_3,Length=0.024604000,Units=km
new line.TR12429813 bus1=BMT159349719.1.2.3,bus2=BMT159349721.1.2.3,Phases=3,Linecode=CABA06_3_3,Length=0.037065000,Units=km
new line.TR12429814 bus1=BMT159349721.1.2.3,bus2=BMT9035767B.1.2.3,Phases=3,Linecode=CABA06_3_3,Length=0.035067000,Units=km
new line.TR12429816 bus1=BMT9035767B.1.2.3,bus2=BMT9035766B.1.2.3,Phases=3,Linecode=CABA06_3_3,Length=0.036066000,Units=km
new line.TR12429817 bus1=BMT9035766B.1.2.3,bus2=BMT9035763B.1.2.3,Phases=3,Linecode=CABA06_3_3,Length=0.039127000,Units=km
new line.TR12429818 bus1=BMT9035763B.1.2.3,bus2=BMT9035760B.1.2.3,Phases=3,Linecode=CABA06_3_3,Length=0.026934000,Units=km
new line.TR12429821 bus1=BMT9035760B.1.2.3,bus2=BMT159349722.1.2.3,Phases=3,Linecode=CABA06_3_3,Length=0.036370000,Units=km
new line.TR12429823 bus1=BMT9035774B.1.2.3,bus2=BMT159349723.1.2.3,Phases=3,Linecode=CABA06_3_3,Length=0.027211000,Units=km
new line.TR12429824 bus1=BMT159349723.1.2.3,bus2=BMT9035786B.1.2.3,Phases=3,Linecode=CABA06_3_3,Length=0.020815000,Units=km
new line.TR12429825 bus1=BMT9035786B.1.2.3,bus2=BMT159349725.1.2.3,Phases=3,Linecode=CABA06_3_3,Length=0.041122000,Units=km
new line.TR12429826 bus1=BMT159349723.1.2.3,bus2=BMT9035780B.1.2.3,Phases=3,Linecode=CABA06_3_3,Length=0.018390000,Units=km
new line.TR12429827 bus1=BMT9035780B.1.2.3,bus2=BMT9035783B.1.2.3,Phases=3,Linecode=CABA06_3_3,Length=0.036889000,Units=km
new line.TR12429828 bus1=BMT9035783B.1.2.3,bus2=BMT9035784B.1.2.3,Phases=3,Linecode=CABA06_3_3,Length=0.034723000,Units=km
new line.TR12429831 bus1=BMT9035784B.1.2.3,bus2=BMT159349726.1.2.3,Phases=3,Linecode=CABA06_3_3,Length=0.039824000,Units=km
new line.TR12429832 bus1=BMT124407742.1.2.3,bus2=BMT9035798B.1.2.3,Phases=3,Linecode=CABA06_3_3,Length=0.036011000,Units=km
new line.TR12150050 bus1=BMT172726700.1.2.3,bus2=BMT172726701.1.2.3,Phases=3,Linecode=CAB204_3_3,Length=0.026579000,Units=km
new line.TR12150102 bus1=BMT149549788.1.2.3,bus2=BMT8361338B.1.2.3,Phases=3,Linecode=CABA06_3_3,Length=0.039610000,Units=km
new line.TR12150275 bus1=BMT149549788.1.2.3,bus2=BMT8746021B.1.2.3,Phases=3,Linecode=CABA06_3_3,Length=0.024847000,Units=km
new line.TR12150276 bus1=BMT8746021B.1.2.3,bus2=BMT149549789.1.2.3,Phases=3,Linecode=CABA06_3_3,Length=0.014565000,Units=km
new line.TR12151242 bus1=BMT171608474.1.2.3,bus2=BMT171608478.1.2.3,Phases=3,Linecode=CAB103_3_3,Length=0.019032000,Units=km
new line.TR12151243 bus1=BMT171608478.1.2.3,bus2=BMT171608479.1.2.3,Phases=3,Linecode=CAB103_3_3,Length=0.019032000,Units=km
new line.TR12151247 bus1=BMT171608478.1.2.3,bus2=BMT8746866B.1.2.3,Phases=3,Linecode=CABA06_3_3,Length=0.035010000,Units=km
new line.TR12151249 bus1=BMT8746866B.1.2.3,bus2=BMT171608480.1.2.3,Phases=3,Linecode=CABA06_3_3,Length=0.039420000,Units=km
new line.TR12220903 bus1=BMT124416275.2,bus2=BMT8821556B.2,Phases=1,Linecode=CAB202_3_1,Length=0.027303000,Units=km
new line.TR12220904 bus1=BMT8821556B.2,bus2=BMT162662150.2,Phases=1,Linecode=CAB202_3_1,Length=0.057505000,Units=km
new line.TR12220907 bus1=BMT162662152.2,bus2=BMT162662153.2,Phases=1,Linecode=CAB202_3_1,Length=0.325600000,Units=km
new line.TR12337946 bus1=BMT156349896.3,bus2=BMT156349897.3,Phases=1,Linecode=CAB202_3_1,Length=0.241122000,Units=km
new line.TR12337951 bus1=BMT169036703.3,bus2=BMT169036704.3,Phases=1,Linecode=CAB202_3_1,Length=0.019729000,Units=km
new line.TR12338803 bus1=BMT157111665.1.2.3,bus2=BMT124410262.1.2.3,Phases=3,Linecode=CAB202_3_3,Length=0.180325000,Units=km
new line.TR12462241 bus1=BMT165920953.1.2.3,bus2=BMT8758583B.1.2.3,Phases=3,Linecode=CABA06_3_3,Length=0.022210000,Units=km
new line.TR12462242 bus1=BMT8758583B.1.2.3,bus2=BMT160798365.1.2.3,Phases=3,Linecode=CABA06_3_3,Length=0.029420000,Units=km
new line.TR12462243 bus1=BMT160800527.1.2.3,bus2=BMT9071072B.1.2.3,Phases=3,Linecode=CABA06_3_3,Length=0.029842000,Units=km
new line.TR12462244 bus1=BMT9071072B.1.2.3,bus2=BMT9071073B.1.2.3,Phases=3,Linecode=CABA06_3_3,Length=0.030092000,Units=km
new line.TR12462245 bus1=BMT9071073B.1.2.3,bus2=BMT9071075B.1.2.3,Phases=3,Linecode=CABA06_3_3,Length=0.030241000,Units=km
new line.TR12462246 bus1=BMT9071075B.1.2.3,bus2=BMT9071076B.1.2.3,Phases=3,Linecode=CABA06_3_3,Length=0.030241000,Units=km
new line.TR12462260 bus1=BMT160800529.1.2.3,bus2=BMT9071082B.1.2.3,Phases=3,Linecode=CABA06_3_3,Length=0.030241000,Units=km
new line.TR12462261 bus1=BMT9071082B.1.2.3,bus2=BMT9071083B.1.2.3,Phases=3,Linecode=CABA06_3_3,Length=0.029690000,Units=km
new line.TR12462262 bus1=BMT9071083B.1.2.3,bus2=BMT9071086B.1.2.3,Phases=3,Linecode=CABA06_3_3,Length=0.031790000,Units=km
new line.TR12462263 bus1=BMT9071086B.1.2.3,bus2=BMT160800531.1.2.3,Phases=3,Linecode=CABA06_3_3,Length=0.021384000,Units=km
new line.TR12462268 bus1=BMT160800531.1.2.3,bus2=BMT9071088B.1.2.3,Phases=3,Linecode=CABA06_3_3,Length=0.008249000,Units=km
new line.TR12462269 bus1=BMT9071088B.1.2.3,bus2=BMT9071148B.1.2.3,Phases=3,Linecode=CABA06_3_3,Length=0.031585000,Units=km
new line.TR12462271 bus1=BMT160800531.1.2.3,bus2=BMT9071111B.1.2.3,Phases=3,Linecode=CABA06_3_3,Length=0.006711000,Units=km
new line.TR12462272 bus1=BMT9071111B.1.2.3,bus2=BMT9071112B.1.2.3,Phases=3,Linecode=CABA06_3_3,Length=0.029975000,Units=km
new line.TR12462274 bus1=BMT9071112B.1.2.3,bus2=BMT160800533.1.2.3,Phases=3,Linecode=CABA06_3_3,Length=0.027739000,Units=km
new line.TR12462279 bus1=BMT9071076B.1.2.3,bus2=BMT160800528.1.2.3,Phases=3,Linecode=CABA06_3_3,Length=0.013606000,Units=km
new line.TR12462280 bus1=BMT160800528.1.2.3,bus2=BMT160800529.1.2.3,Phases=3,Linecode=CABA06_3_3,Length=0.016648000,Units=km
new line.TR12462281 bus1=BMT160800528.1.2.3,bus2=BMT9071096B.1.2.3,Phases=3,Linecode=CABA06_3_3,Length=0.014769000,Units=km
new line.TR12462282 bus1=BMT160800528.1.2.3,bus2=BMT9071094B.1.2.3,Phases=3,Linecode=CABA06_3_3,Length=0.005659000,Units=km
new line.TR12462283 bus1=BMT9071094B.1.2.3,bus2=BMT9071097B.1.2.3,Phases=3,Linecode=CABA06_3_3,Length=0.021101000,Units=km
new line.TR12462284 bus1=BMT9071097B.1.2.3,bus2=BMT9071118B.1.2.3,Phases=3,Linecode=CABA06_3_3,Length=0.021961000,Units=km
new line.TR12462285 bus1=BMT9071118B.1.2.3,bus2=BMT9071119B.1.2.3,Phases=3,Linecode=CABA06_3_3,Length=0.021101000,Units=km
...
