CemigDFeeders/PSAU13/PSAU13ChavesMT.dss
new line.CTR102949 bus1=BMT124408792.1.2.3,bus2=BMT158938677.1.2.3,Phases=3,LineCode=tieSwitch,Length=0.001,Units=km,switch=T !numEQ 44175
new line.CTR129598 bus1=BMT124405922.1.2.3,bus2=BMT173152158.1.2.3,Phases=3,LineCode=tieSwitch,Length=0.001,Units=km,switch=T !numEQ 79312
new line.CTR129612 bus1=BMT124409065.1.2.3,bus2=BMT166452705.1.2.3,Phases=3,LineCode=tieSwitch,Length=0.001,Units=km,switch=T !numEQ 44515
new line.CTR129619 bus1=BMT124408246.1.2.3,bus2=BMT124408253.1.2.3,Phases=3,LineCode=tieSwitch,Length=0.001,Units=km,switch=T !numEQ 44032
new line.CTR129626 bus1=BMT124409170.1,bus2=BMT124411795.1,Phases=1,LineCode=tieSwitch1,Length=0.001,Units=km,switch=T !numEQ 44517
new line.CTR129633 bus1=BMT124408232.1.2.3,bus2=BMT171608456.1.2.3,Phases=3,LineCode=tieSwitch,Length=0.001,Units=km,switch=T !numEQ 44479
new line.CTR129654 bus1=BMT124409751.1.2.3,bus2=BMT169051309.1.2.3,Phases=3,LineCode=tieSwitch,Length=0.001,Units=km,switch=T !numEQ 272071
new line.CTR129668 bus1=BMT124408526.1.2.3,bus2=BMT124408596.1.2.3,Phases=3,LineCode=tieSwitch,Length=0.001,Units=km,switch=T !numEQ 292301
new line.CTR129675 bus1=BMT124408666.1.2.3,bus2=BMT124419075.1.2.3,Phases=3,LineCode=tieSwitch,Length=0.001,Units=km,switch=T !numEQ 44160
new line.CTR129696 bus1=BMT124408925.1.2.3,bus2=BMT124418907.1.2.3,Phases=3,LineCode=tieSwitch,Length=0.001,Units=km,switch=T !numEQ 45800
new line.CTR129703 bus1=BMT124409261.2,bus2=BMT171646686.2,Phases=1,LineCode=tieSwitch1,Length=0.001,Units=km,switch=T !numEQ 44520
new line.CTR129710 bus1=BMT124409317.1.2.3,bus2=BMT172915301.1.2.3,Phases=3,LineCode=tieSwitch,Length=0.001,Units=km,switch=T !numEQ 45836
new line.CTR129717 bus1=BMT124409387.1.2.3,bus2=BMT124411137.1.2.3,Phases=3,LineCode=tieSwitch,Length=0.001,Units=km,switch=T !numEQ 44523
new line.CTR129724 bus1=BMT124409401.2,bus2=BMT124409618.2,Phases=1,LineCode=tieSwitch1,Length=0.001,Units=km,switch=T !numEQ 44524
new line.CTR129731 bus1=BMT156194467.3,bus2=BMT156349896.3,Phases=1,LineCode=tieSwitch1,Length=0.001,Units=km,switch=T !numEQ 158252
new line.CTR129738 bus1=BMT124409695.1,bus2=BMT124410227.1,Phases=1,LineCode=tieSwitch1,Length=0.001,Units=km,switch=T !numEQ 44531
new line.CTR129752 bus1=BMT124412551.3,bus2=BMT124418200.3,Phases=1,LineCode=tieSwitch1,Length=0.001,Units=km,switch=T !numEQ 47891
new line.CTR129759 bus1=BMT124410262.2,bus2=BMT124410276.2,Phases=1,LineCode=tieSwitch1,Length=0.001,Units=km,switch=T !numEQ 44529
new line.CTR129766 bus1=BMT124415470.2,bus2=BMT124415729.2,Phases=1,LineCode=tieSwitch1,Length=0.001,Units=km,switch=T !numEQ 239285
new line.CTR129773 bus1=BMT124410339.3,bus2=BMT150741689.3,Phases=1,LineCode=tieSwitch1,Length=0.001,Units=km,switch=T !numEQ 47605
new line.CTR129780 bus1=BMT124412425.1,bus2=BMT124418277.1,Phases=1,LineCode=tieSwitch1,Length=0.001,Units=km,switch=T !numEQ 47685
new line.CTR129794 bus1=BMT124411144.2,bus2=BMT124411228.2,Phases=1,LineCode=tieSwitch1,Length=0.001,Units=km,switch=T !numEQ 47983
new line.CTR129808 bus1=BMT124409352.2,bus2=BMT124409415.2,Phases=1,LineCode=tieSwitch1,Length=0.001,Units=km,switch=T !numEQ 47602
new line.CTR129815 bus1=BMT124409198.1,bus2=BMT124409324.1,Phases=1,LineCode=tieSwitch1,Length=0.001,Units=km,switch=T !numEQ 44518
new line.CTR129822 bus1=BMT124408967.3,bus2=BMT170684714.3,Phases=1,LineCode=tieSwitch1,Length=0.001,Units=km,switch=T !numEQ 47986
new line.CTR129829 bus1=BMT124412159.3,bus2=BMT170354584.3,Phases=1,LineCode=tieSwitch1,Length=0.001,Units=km,switch=T !numEQ 47996
new line.CTR129836 bus1=BMT124412327.2,bus2=BMT124418319.2,Phases=1,LineCode=tieSwitch1,Length=0.001,Units=km,switch=T !numEQ 47991
new line.CTR129843 bus1=BMT124412565.2,bus2=BMT124418081.2,Phases=1,LineCode=tieSwitch1,Length=0.001,Units=km,switch=T !numEQ 45848
new line.CTR129850 bus1=BMT124412628.2,bus2=BMT124417920.2,Phases=1,LineCode=tieSwitch1,Length=0.001,Units=km,switch=T !numEQ 47698
new line.CTR129857 bus1=BMT124412656.3,bus2=BMT167205181.3,Phases=1,LineCode=tieSwitch1,Length=0.001,Units=km,switch=T !numEQ 46344
new line.CTR129871 bus1=BMT124413811.1.2.3,bus2=BMT156806397.1.2.3,Phases=3,LineCode=tieSwitch,Length=0.001,Units=km,switch=T !numEQ 44928
new line.CTR129878 bus1=BMT124414308.1.2.3,bus2=BMT171810276.1.2.3,Phases=3,LineCode=tieSwitch,Length=0.001,Units=km,switch=T !numEQ 236807
new line.CTR129927 bus1=BMT124407434.1.2.3,bus2=BMT171893996.1.2.3,Phases=3,LineCode=tieSwitch,Length=0.001,Units=km,switch=T !numEQ 312282
new line.CTR129941 bus1=BMT124412460.1.2.3,bus2=BMT152288204.1.2.3,Phases=3,LineCode=tieSwitch,Length=0.001,Units=km,switch=T !numEQ 158239
new line.CTR129948 bus1=BMT156806396.1,bus2=BMT124414511.1,Phases=1,LineCode=tieSwitch1,Length=0.001,Units=km,switch=T !numEQ 239068
new line.CTR129955 bus1=BMT152288029.1,bus2=BMT152288189.1,Phases=1,LineCode=tieSwitch1,Length=0.001,Units=km,switch=T !numEQ 158241
new line.CTR129962 bus1=BMT124418802.3,bus2=BMT170354397.3,Phases=1,LineCode=tieSwitch1,Length=0.001,Units=km,switch=T !numEQ 47695
new line.CTR129969 bus1=BMT143552525.1.2.3,bus2=BMT124407140.1.2.3,Phases=3,LineCode=tieSwitch,Length=0.001,Units=km,switch=T !numEQ 292918
open line.CTR129969 term=1
new line.CTR129976 bus1=BMT124419103.1.2.3,bus2=BMT124419138.1.2.3,Phases=3,LineCode=tieSwitch,Length=0.001,Units=km,switch=T !numEQ 296405
new line.CTR129983 bus1=BMT165634410.1.2.3,bus2=BMT149231231.1.2.3,Phases=3,LineCode=tieSwitch,Length=0.001,Units=km,switch=T !numEQ 44156
open line.CTR129983 term=1
new line.CTR130004 bus1=BMT152431655.1.2.3,bus2=BMT152431656.1.2.3,Phases=3,LineCode=tieSwitch,Length=0.001,Units=km,switch=T !numEQ 44104
new line.CTR130011 bus1=BMT124406279.1.2.3,bus2=BMT128758179.1.2.3,Phases=3,LineCode=tieSwitch,Length=0.001,Units=km,switch=T !numEQ 292935
new line.CTR130018 bus1=BMT124406314.1.2.3,bus2=BMT162141341.1.2.3,Phases=3,LineCode=tieSwitch,Length=0.001,Units=km,switch=T !numEQ 292919
new line.CTR130025 bus1=BMT124406440.1.2.3,bus2=BMT128740903.1.2.3,Phases=3,LineCode=tieSwitch,Length=0.001,Units=km,switch=T !numEQ 292923
new line.CTR130032 bus1=BMT124406475.1.2.3,bus2=BMT143583640.1.2.3,Phases=3,LineCode=tieSwitch,Length=0.001,Units=km,switch=T !numEQ 292922
new line.CTR130039 bus1=BMT124407119.1.2.3,bus2=BMT124407238.1.2.3,Phases=3,LineCode=tieSwitch,Length=0.001,Units=km,switch=T !numEQ 44178
new line.CTR130046 bus1=BMT124407084.1.2.3,bus2=BMT133411107.1.2.3,Phases=3,LineCode=tieSwitch,Length=0.001,Units=km,switch=T !numEQ 292916
new line.CTR130060 bus1=BMT124406566.1.2.3,bus2=BMT143535228.1.2.3,Phases=3,LineCode=tieSwitch,Length=0.001,Units=km,switch=T !numEQ 292927
new line.CTR13608 bus1=BMT124405880.1.2.3,bus2=BMT169554413.1.2.3,Phases=3,LineCode=tieSwitch,Length=0.001,Units=km,switch=T !numEQ 44340
new line.CTR165368 bus1=BMT124415974.2,bus2=BMT124416555.2,Phases=1,LineCode=tieSwitch1,Length=0.001,Units=km,switch=T !numEQ 174506
new line.CTR194677 bus1=BMT124407490.1,bus2=BMT168171840.1,Phases=1,LineCode=tieSwitch1,Length=0.001,Units=km,switch=T !numEQ 205566
new line.CTR195097 bus1=BMT124412915.1,bus2=BMT124413230.1,Phases=1,LineCode=tieSwitch1,Length=0.001,Units=km,switch=T !numEQ 227404
new line.CTR2884 bus1=BMT124412670.1,bus2=BMT152869677.1,Phases=1,LineCode=tieSwitch1,Length=0.001,Units=km,switch=T !numEQ 103609
new line.CTR351483 bus1=BMT124418445.3,bus2=BMT171592078.3,Phases=1,LineCode=tieSwitch1,Length=0.001,Units=km,switch=T !numEQ 228738
new line.CTR38486 bus1=BMT124418102.2,bus2=BMT124418116.2,Phases=1,LineCode=tieSwitch1,Length=0.001,Units=km,switch=T !numEQ 144398
new line.CTR386609 bus1=BMT132484790.2,bus2=BMT132484846.2,Phases=1,LineCode=tieSwitch1,Length=0.001,Units=km,switch=T !numEQ 296026
new line.CTR41475 bus1=BMT124414357.1.2.3,bus2=BMT124416793.1.2.3,Phases=3,LineCode=tieSwitch,Length=0.001,Units=km,switch=T !numEQ 44930
new line.CTR41482 bus1=BMT124412719.1,bus2=BMT156230385.1,Phases=1,LineCode=tieSwitch1,Length=0.001,Units=km,switch=T !numEQ 47686
new line.CTR41489 bus1=BMT124414427.3,bus2=BMT124416744.3,Phases=1,LineCode=tieSwitch1,Length=0.001,Units=km,switch=T !numEQ 45806
new line.CTR41496 bus1=BMT124415092.2,bus2=BMT160650066.2,Phases=1,LineCode=tieSwitch1,Length=0.001,Units=km,switch=T !numEQ 181929
new line.CTR41503 bus1=BMT124408876.1.2.3,bus2=BMT170821711.1.2.3,Phases=3,LineCode=tieSwitch,Length=0.001,Units=km,switch=T !numEQ 47999
new line.CTR41517 bus1=BMT170571767.1.2.3,bus2=BMT124409016.1.2.3,Phases=3,LineCode=tieSwitch,Length=0.001,Units=km,switch=T !numEQ 44514
new line.CTR41524 bus1=BMT124409163.1.2.3,bus2=BMT124411809.1.2.3,Phases=3,LineCode=tieSwitch,Length=0.001,Units=km,switch=T !numEQ 44516
new line.CTR41531 bus1=BMT124409184.3,bus2=BMT155920408.3,Phases=1,LineCode=tieSwitch1,Length=0.001,Units=km,switch=T !numEQ 47573
new line.CTR41538 bus1=BMT124409275.2,bus2=BMT124411543.2,Phases=1,LineCode=tieSwitch1,Length=0.001,Units=km,switch=T !numEQ 46351
new line.CTR41545 bus1=BMT124409268.2,bus2=BMT154045103.2,Phases=1,LineCode=tieSwitch1,Length=0.001,Units=km,switch=T !numEQ 45834
new line.CTR41552 bus1=BMT124409345.2,bus2=BMT124411256.2,Phases=1,LineCode=tieSwitch1,Length=0.001,Units=km,switch=T !numEQ 47601
new line.CTR41559 bus1=BMT124409394.2,bus2=BMT124411095.2,Phases=1,LineCode=tieSwitch1,Length=0.001,Units=km,switch=T !numEQ 47149
new line.CTR41566 bus1=BMT124409408.1.2.3,bus2=BMT170039450.1.2.3,Phases=3,LineCode=tieSwitch,Length=0.001,Units=km,switch=T !numEQ 44526
new line.CTR41573 bus1=BMT124409639.1,bus2=BMT124411081.1,Phases=1,LineCode=tieSwitch1,Length=0.001,Units=km,switch=T !numEQ 44525
new line.CTR41580 bus1=BMT124409730.2,bus2=BMT124410206.2,Phases=1,LineCode=tieSwitch1,Length=0.001,Units=km,switch=T !numEQ 44532
new line.CTR41587 bus1=BMT124409954.1.2.3,bus2=BMT166679133.1.2.3,Phases=3,LineCode=tieSwitch,Length=0.001,Units=km,switch=T !numEQ 380032
new line.CTR41601 bus1=BMT124409758.2,bus2=BMT152953846.2,Phases=1,LineCode=tieSwitch1,Length=0.001,Units=km,switch=T !numEQ 47580
new line.CTR41608 bus1=BMT124410332.3,bus2=BMT150741684.3,Phases=1,LineCode=tieSwitch1,Length=0.001,Units=km,switch=T !numEQ 45641
new line.CTR41615 bus1=BMT157111657.1.2.3,bus2=BMT157111665.1.2.3,Phases=3,LineCode=tieSwitch,Length=0.001,Units=km,switch=T !numEQ 44530
new line.CTR41622 bus1=BMT124410514.3,bus2=BMT165435126.3,Phases=1,LineCode=tieSwitch1,Length=0.001,Units=km,switch=T !numEQ 158254
new line.CTR41629 bus1=BMT124410479.3,bus2=BMT150741697.3,Phases=1,LineCode=tieSwitch1,Length=0.001,Units=km,switch=T !numEQ 47606
new line.CTR41636 bus1=BMT124411158.1.2.3,bus2=BMT124411179.1.2.3,Phases=3,LineCode=tieSwitch,Length=0.001,Units=km,switch=T !numEQ 47647
new line.CTR41685 bus1=BMT124409436.2,bus2=BMT124409443.2,Phases=1,LineCode=tieSwitch1,Length=0.001,Units=km,switch=T !numEQ 47995
new line.CTR41720 bus1=BMT124408148.1.2.3,bus2=BMT143819911.1.2.3,Phases=3,LineCode=tieSwitch,Length=0.001,Units=km,switch=T !numEQ 44629
new line.CTR41748 bus1=BMT157338163.1.2.3,bus2=BMT124408547.1.2.3,Phases=3,LineCode=tieSwitch,Length=0.001,Units=km,switch=T !numEQ 79770
new line.CTR41776 bus1=BMT124408806.1.2.3,bus2=BMT153478218.1.2.3,Phases=3,LineCode=tieSwitch,Length=0.001,Units=km,switch=T !numEQ 44540
new line.CTR41783 bus1=BMT124419019.1.2.3,bus2=BMT124419026.1.2.3,Phases=3,LineCode=tieSwitch,Length=0.001,Units=km,switch=T !numEQ 44176
new line.CTR41790 bus1=BMT124408820.1.2.3,bus2=BMT163267999.1.2.3,Phases=3,LineCode=tieSwitch,Length=0.001,Units=km,switch=T !numEQ 44395
new line.CTR418830 bus1=BMT134859736.3,bus2=BMT170218194.3,Phases=1,LineCode=tieSwitch1,Length=0.001,Units=km,switch=T !numEQ 200753
new line.CTR43708 bus1=BMT124407721.2,bus2=BMT124407875.2,Phases=1,LineCode=tieSwitch1,Length=0.001,Units=km,switch=T !numEQ 205677
new line.CTR53116 bus1=BMT171808002.2,bus2=BMT171808003.2,Phases=1,LineCode=tieSwitch1,Length=0.001,Units=km,switch=T !numEQ 128324
new line.CTR64799 bus1=BMT124408589.1.2.3,bus2=BMT171308814.1.2.3,Phases=3,LineCode=tieSwitch,Length=0.001,Units=km,switch=T !numEQ 44324
new line.CTR76307 bus1=BMT124408533.1.2.3,bus2=BMT124419201.1.2.3,Phases=3,LineCode=tieSwitch,Length=0.001,Units=km,switch=T !numEQ 103632
new line.CTR80108 bus1=BMT124407763.2,bus2=BMT162345777.2,Phases=1,LineCode=tieSwitch1,Length=0.001,Units=km,switch=T !numEQ 173761
new line.CTR845933 bus1=BMT148686671.1.2.3,bus2=BMT163060335.1.2.3,Phases=3,LineCode=tieSwitch,Length=0.001,Units=km,switch=T !numEQ 373417
new line.CTR854434 bus1=BMT151192858.1.2.3,bus2=BMT151192859.1.2.3,Phases=3,LineCode=tieSwitch,Length=0.001,Units=km,switch=T !numEQ 202811
new line.CTR864388 bus1=BMT154044140.1,bus2=BMT164060730.1,Phases=1,LineCode=tieSwitch1,Length=0.001,Units=km,switch=T !numEQ 380031
new line.CTR864394 bus1=BMT154045104.2,bus2=BMT158585213.2,Phases=1,LineCode=tieSwitch1,Length=0.001,Units=km,switch=T !numEQ 236813
new line.CTR864396 bus1=BMT154912993.2,bus2=BMT154912995.2,Phases=1,LineCode=tieSwitch1,Length=0.001,Units=km,switch=T !numEQ 230514
new line.CTR864689 bus1=BMT154133442.2,bus2=BMT161032668.2,Phases=1,LineCode=tieSwitch1,Length=0.001,Units=km,switch=T !numEQ 381997
new line.CTR864974 bus1=BMT154231005.1.2.3,bus2=BMT156969763.1.2.3,Phases=3,LineCode=tieSwitch,Length=0.001,Units=km,switch=T !numEQ 381962
new line.CTR130074 bus1=BMT124406888.1.2.3,bus2=BMT143537132.1.2.3,Phases=3,LineCode=tieSwitch,Length=0.001,Units=km,switch=T !numEQ 44173
new line.CTR130088 bus1=BMT124406615.1.2.3,bus2=BMT150655039.1.2.3,Phases=3,LineCode=tieSwitch,Length=0.001,Units=km,switch=T !numEQ 292427
new line.CTR130102 bus1=BMT165641423.1.2.3,bus2=BMT165641438.1.2.3,Phases=3,LineCode=tieSwitch,Length=0.001,Units=km,switch=T !numEQ 44112
new line.CTR130109 bus1=BMT143537006.1.2.3,bus2=BMT124406685.1.2.3,Phases=3,LineCode=tieSwitch,Length=0.001,Units=km,switch=T !numEQ 44055
! manobra fechar
open line.CTR130109 term=1
new line.CTR159173 bus1=BMT167591880.1.2.3,bus2=BMT124419124.1.2.3,Phases=3,LineCode=tieSwitch,Length=0.001,Units=km,switch=T !numEQ 296406
open line.CTR159173 term=1
new line.CTR160097 bus1=BMT167002527.1.2.3,bus2=BMT2783438.1.2.3,Phases=3,LineCode=tieSwitch,Length=0.001,Units=km,switch=T !numEQ 44962
open line.CTR160097 term=1
new line.CTR190001 bus1=BMT124414665.3,bus2=BMT124414672.3,Phases=1,LineCode=tieSwitch1,Length=0.001,Units=km,switch=T !numEQ 206375
new line.CTR325625 bus1=BMT124416275.2,bus2=BMT124416450.2,Phases=1,LineCode=tieSwitch1,Length=0.001,Units=km,switch=T !numEQ 282191
new line.CTR326969 bus1=BMT124412901.1,bus2=BMT124413195.1,Phases=1,LineCode=tieSwitch1,Length=0.001,Units=km,switch=T !numEQ 227226
new line.CTR327011 bus1=BMT124413069.1,bus2=BMT124413167.1,Phases=1,LineCode=tieSwitch1,Length=0.001,Units=km,switch=T !numEQ 226699
new line.CTR327711 bus1=BMT124417311.3,bus2=BMT124417423.3,Phases=1,LineCode=tieSwitch1,Length=0.001,Units=km,switch=T !numEQ 221558
new line.CTR370992 bus1=BMT124416247.2,bus2=BMT160661946.2,Phases=1,LineCode=tieSwitch1,Length=0.001,Units=km,switch=T !numEQ 291269
new line.CTR41055 bus1=BMT124407518.1.2.3,bus2=BMT124407560.1.2.3,Phases=3,LineCode=tieSwitch,Length=0.001,Units=km,switch=T !numEQ 47900
new line.CTR41062 bus1=BMT124406405.3,bus2=BMT154230767.3,Phases=1,LineCode=tieSwitch1,Length=0.001,Units=km,switch=T !numEQ 292924
new line.CTR41069 bus1=BMT124406552.1.2.3,bus2=BMT143552245.1.2.3,Phases=3,LineCode=tieSwitch,Length=0.001,Units=km,switch=T !numEQ 292428
new line.CTR41083 bus1=BMT124406482.1.2.3,bus2=BMT143535172.1.2.3,Phases=3,LineCode=tieSwitch,Length=0.001,Units=km,switch=T !numEQ 44169
! manobra abrir
! open line.CTR41083 term=1
new line.CTR41104 bus1=BMT124406629.1.2.3,bus2=BMT143537251.1.2.3,Phases=3,LineCode=tieSwitch,Length=0.001,Units=km,switch=T !numEQ 292425
new line.CTR41111 bus1=BMT124406916.1.2.3,bus2=BMT162273559.1.2.3,Phases=3,LineCode=tieSwitch,Length=0.001,Units=km,switch=T !numEQ 292430
new line.CTR41118 bus1=BMT124406643.1.2.3,bus2=BMT143536992.1.2.3,Phases=3,LineCode=tieSwitch,Length=0.001,Units=km,switch=T !numEQ 292432
new line.CTR41125 bus1=BMT124406657.1.2.3,bus2=BMT167611686.1.2.3,Phases=3,LineCode=tieSwitch,Length=0.001,Units=km,switch=T !numEQ 292429
new line.CTR41132 bus1=BMT124406755.1.2.3,bus2=BMT164954521.1.2.3,Phases=3,LineCode=tieSwitch,Length=0.001,Units=km,switch=T !numEQ 292431
new line.CTR41139 bus1=BMT124406671.1.2.3,bus2=BMT134101657.1.2.3,Phases=3,LineCode=tieSwitch,Length=0.001,Units=km,switch=T !numEQ 44913
new line.CTR41223 bus1=BMT124416947.3,bus2=BMT155221125.3,Phases=1,LineCode=tieSwitch1,Length=0.001,Units=km,switch=T !numEQ 44948
new line.CTR41230 bus1=BMT124412796.2,bus2=BMT124413608.2,Phases=1,LineCode=tieSwitch1,Length=0.001,Units=km,switch=T !numEQ 158240
new line.CTR412355 bus1=BMT133403624.2,bus2=BMT133405255.2,Phases=1,LineCode=tieSwitch1,Length=0.001,Units=km,switch=T !numEQ 292917
new line.CTR41237 bus1=BMT124412859.1,bus2=BMT124413258.1,Phases=1,LineCode=tieSwitch1,Length=0.001,Units=km,switch=T !numEQ 158242
new line.CTR412383 bus1=BMT143552301.1.2.3,bus2=BMT133408174.1.2.3,Phases=3,LineCode=tieSwitch,Length=0.001,Units=km,switch=T !numEQ 292925
new line.CTR41258 bus1=BMT124411963.1,bus2=BMT131043301.1,Phases=1,LineCode=tieSwitch1,Length=0.001,Units=km,switch=T !numEQ 45803
new line.CTR41265 bus1=BMT124408568.1.2.3,bus2=BMT165634405.1.2.3,Phases=3,LineCode=tieSwitch,Length=0.001,Units=km,switch=T !numEQ 296404
new line.CTR41279 bus1=BMT124419334.1.2.3,bus2=BMT124419446.1.2.3,Phases=3,LineCode=tieSwitch,Length=0.001,Units=km,switch=T !numEQ 44360
new line.CTR41286 bus1=BMT124405936.1.2.3,bus2=BMT141588115.1.2.3,Phases=3,LineCode=tieSwitch,Length=0.001,Units=km,switch=T !numEQ 79751
new line.CTR41293 bus1=BMT124406006.1.2.3,bus2=BMT124406013.1.2.3,Phases=3,LineCode=tieSwitch,Length=0.001,Units=km,switch=T !numEQ 44905
new line.CTR41300 bus1=BMT124406041.1.2.3,bus2=BMT172775630.1.2.3,Phases=3,LineCode=tieSwitch,Length=0.001,Units=km,switch=T !numEQ 291367
new line.CTR41342 bus1=BMT124406286.1.2.3,bus2=BMT134104429.1.2.3,Phases=3,LineCode=tieSwitch,Length=0.001,Units=km,switch=T !numEQ 292930
new line.CTR41377 bus1=BMT124412201.3,bus2=BMT124418438.3,Phases=1,LineCode=tieSwitch1,Length=0.001,Units=km,switch=T !numEQ 45847
new line.CTR41384 bus1=BMT124412306.1.2.3,bus2=BMT124418410.1.2.3,Phases=3,LineCode=tieSwitch,Length=0.001,Units=km,switch=T !numEQ 47958
new line.CTR41391 bus1=BMT124412341.3,bus2=BMT124418291.3,Phases=1,LineCode=tieSwitch1,Length=0.001,Units=km,switch=T !numEQ 47681
new line.CTR41398 bus1=BMT172760253.1,bus2=BMT124412537.1,Phases=1,LineCode=tieSwitch1,Length=0.001,Units=km,switch=T !numEQ 47892
new line.CTR41405 bus1=BMT124412544.2,bus2=BMT124418172.2,Phases=1,LineCode=tieSwitch1,Length=0.001,Units=km,switch=T !numEQ 47684
new line.CTR41412 bus1=BMT124412558.3,bus2=BMT148687638.3,Phases=1,LineCode=tieSwitch1,Length=0.001,Units=km,switch=T !numEQ 47683
new line.CTR41419 bus1=BMT124412607.3,bus2=BMT124417934.3,Phases=1,LineCode=tieSwitch1,Length=0.001,Units=km,switch=T !numEQ 47898
new line.CTR41426 bus1=BMT124412635.1,bus2=BMT124417899.1,Phases=1,LineCode=tieSwitch1,Length=0.001,Units=km,switch=T !numEQ 47699
new line.CTR41433 bus1=BMT124412663.1.2.3,bus2=BMT124417717.1.2.3,Phases=3,LineCode=tieSwitch,Length=0.001,Units=km,switch=T !numEQ 47288
new line.CTR41454 bus1=BMT124413853.3,bus2=BMT155363414.3,Phases=1,LineCode=tieSwitch1,Length=0.001,Units=km,switch=T !numEQ 238950
new line.CTR41461 bus1=BMT124413867.3,bus2=BMT124413916.3,Phases=1,LineCode=tieSwitch1,Length=0.001,Units=km,switch=T !numEQ 44994
new line.CTR860407 bus1=BMT169036722.3,bus2=BMT152902709.3,Phases=1,LineCode=tieSwitch1,Length=0.001,Units=km,switch=T !numEQ 158251
new line.CTR86107 bus1=BMT124413860.2,bus2=BMT171049576.2,Phases=1,LineCode=tieSwitch1,Length=0.001,Units=km,switch=T !numEQ 236806
new line.CTR86142 bus1=BMT124407742.1.2.3,bus2=BMT166932188.1.2.3,Phases=3,LineCode=tieSwitch,Length=0.001,Units=km,switch=T !numEQ 172739
new line.CTR894809 bus1=BMT164761520.2,bus2=BMT164761635.2,Phases=1,LineCode=tieSwitch1,Length=0.001,Units=km,switch=T !numEQ 270046
new line.CTR104069 bus1=BMT154487503.1.2.3,bus2=BMT154487504.1.2.3,Phases=3,LineCode=tieSwitch,Length=0.001,Units=km,switch=T !numEQ 130411
new line.CTR1043 bus1=BMT124419474.1.2.3,bus2=BMT124419516.1.2.3,Phases=3,LineCode=tieSwitch,Length=0.001,Units=km,switch=T !numEQ 175617
new line.CTR105273 bus1=BMT124407168.2,bus2=BMT171726430.2,Phases=1,LineCode=tieSwitch1,Length=0.001,Units=km,switch=T !numEQ 292926
new line.CTR105308 bus1=BMT124408799.1.2.3,bus2=BMT124419054.1.2.3,Phases=3,LineCode=tieSwitch,Length=0.001,Units=km,switch=T !numEQ 44174
new line.CTR105322 bus1=BMT171308827.1.2.3,bus2=BMT124408750.1.2.3,Phases=3,LineCode=tieSwitch,Length=0.001,Units=km,switch=T !numEQ 44047
new line.CTR117131 bus1=BMT124411333.2,bus2=BMT150830696.2,Phases=1,LineCode=tieSwitch1,Length=0.001,Units=km,switch=T !numEQ 309756
new line.CTR117971 bus1=BMT124409765.3,bus2=BMT124409842.3,Phases=1,LineCode=tieSwitch1,Length=0.001,Units=km,switch=T !numEQ 47583
new line.CTR176225 bus1=BMT124411186.2,bus2=BMT124411200.2,Phases=1,LineCode=tieSwitch1,Length=0.001,Units=km,switch=T !numEQ 79772
new line.CTR176939 bus1=BMT124412509.1.2.3,bus2=BMT170365102.1.2.3,Phases=3,LineCode=tieSwitch,Length=0.001,Units=km,switch=T !numEQ 173433
new line.CTR192948 bus1=BMT150830699.2,bus2=BMT169123094.2,Phases=1,LineCode=tieSwitch1,Length=0.001,Units=km,switch=T !numEQ 208165
new line.CTR30618 bus1=BMT124416975.3,bus2=BMT168900850.3,Phases=1,LineCode=tieSwitch1,Length=0.001,Units=km,switch=T !numEQ 45750
new line.CTR34678 bus1=BMT124410724.3,bus2=BMT150741741.3,Phases=1,LineCode=tieSwitch1,Length=0.001,Units=km,switch=T !numEQ 171956
new line.CTR850136 bus1=BMT152314328.1.2.3,bus2=BMT162346805.1.2.3,Phases=3,LineCode=tieSwitch,Length=0.001,Units=km,switch=T !numEQ 375526
new line.CTR850142 bus1=BMT152314375.1.2.3,bus2=BMT152315210.1.2.3,Phases=3,LineCode=tieSwitch,Length=0.001,Units=km,switch=T !numEQ 375527
new line.CTR899252 bus1=BMT166444234.2,bus2=BMT169130291.2,Phases=1,LineCode=tieSwitch1,Length=0.001,Units=km,switch=T !numEQ 271361
new line.CTR916266 bus1=BMT172100981.1.2.3,bus2=BMT172760250.1.2.3,Phases=3,LineCode=tieSwitch,Length=0.001,Units=km,switch=T !numEQ 327287
new line.CTR916351 bus1=BMT172133074.1.2.3,bus2=BMT172886702.1.2.3,Phases=3,LineCode=tieSwitch,Length=0.001,Units=km,switch=T !numEQ 316184
new line.CTRR2583 bus1=BMT124408841.1.2.3,bus2=BMT162675409.1.2.3,Phases=3,LineCode=tieSwitch,Length=0.001,Units=km,switch=T !numEQ 47297
new line.CTR864975 bus1=BMT154231172.3,bus2=BMT156969765.3,Phases=1,LineCode=tieSwitch1,Length=0.001,Units=km,switch=T !numEQ 381963
new line.CTR877119 bus1=BMT157901203.3,bus2=BMT158332181.3,Phases=1,LineCode=tieSwitch1,Length=0.001,Units=km,switch=T !numEQ 249726
new line.CTR884115 bus1=BMT160588587.2,bus2=BMT160588649.2,Phases=1,LineCode=tieSwitch1,Length=0.001,Units=km,switch=T !numEQ 262620
new line.CTR884470 bus1=BMT160798365.1.2.3,bus2=BMT160800527.1.2.3,Phases=3,LineCode=tieSwitch,Length=0.001,Units=km,switch=T !numEQ 235348
new line.CTR884474 bus1=BMT160800536.1.2.3,bus2=BMT160800537.1.2.3,Phases=3,LineCode=tieSwitch,Length=0.001,Units=km,switch=T !numEQ 235349
new line.CTR897389 bus1=BMT166444272.2,bus2=BMT165707113.2,Phases=1,LineCode=tieSwitch1,Length=0.001,Units=km,switch=T !numEQ 265240
open line.CTR897389 term=1
new line.CTR914030 bus1=BMT171435850.3,bus2=BMT171436174.3,Phases=1,LineCode=tieSwitch1,Length=0.001,Units=km,switch=T !numEQ 320402
new line.CTR91469 bus1=BMT124415302.2,bus2=BMT172824218.2,Phases=1,LineCode=tieSwitch1,Length=0.001,Units=km,switch=T !numEQ 208176
new line.CTR914772 bus1=BMT171646703.2,bus2=BMT171646706.2,Phases=1,LineCode=tieSwitch1,Length=0.001,Units=km,switch=T !numEQ 323444
new line.CTRR3269 bus1=BMT124414756.2,bus2=BMT168197588.2,Phases=1,LineCode=tieSwitch1,Length=0.001,Units=km,switch=T !numEQ 207318
new line.CTR142380 bus1=BMT124407798.1.2.3,bus2=BMT124407812.1.2.3,Phases=3,LineCode=tieSwitch,Length=0.001,Units=km,switch=T !numEQ 172920
new line.CTR188664 bus1=BMT124414441.2,bus2=BMT124414749.2,Phases=1,LineCode=tieSwitch1,Length=0.001,Units=km,switch=T !numEQ 207315
new line.CTR343755 bus1=BMT124406734.1.2.3,bus2=BMT124406818.1.2.3,Phases=3,LineCode=tieSwitch,Length=0.001,Units=km,switch=T !numEQ 286020
new line.CTR426978 bus1=BMT137034202.1.2.3,bus2=BMT155623615.1.2.3,Phases=3,LineCode=tieSwitch,Length=0.001,Units=km,switch=T !numEQ 307833
new line.CTR427258 bus1=BMT137137697.1.2.3,bus2=BMT137137732.1.2.3,Phases=3,LineCode=tieSwitch,Length=0.001,Units=km,switch=T !numEQ 307857
new line.CTR427272 bus1=BMT137137795.1.2.3,bus2=BMT137137788.1.2.3,Phases=3,LineCode=tieSwitch,Length=0.001,Units=km,switch=T !numEQ 307856
new line.CTR427328 bus1=BMT137137914.1.2.3,bus2=BMT149549784.1.2.3,Phases=3,LineCode=tieSwitch,Length=0.001,Units=km,switch=T !numEQ 307852
new line.CTR58814 bus1=BMT124411326.2,bus2=BMT124411515.2,Phases=1,LineCode=tieSwitch1,Length=0.001,Units=km,switch=T !numEQ 196664
new line.CTR58905 bus1=BMT124408120.1.2.3,bus2=BMT170755008.1.2.3,Phases=3,LineCode=tieSwitch,Length=0.001,Units=km,switch=T !numEQ 44973
new line.CTR6536211 bus1=BMT2386747908.1.2.3,bus2=BMT2006536212.1.2.3,Phases=3,LineCode=tieSwitch,Length=0.001,Units=km,switch=T !numEQ 
new line.CTR6536331 bus1=BMT2389067035.1.2.3,bus2=BMT2006535872.1.2.3,Phases=3,LineCode=tieSwitch,Length=0.001,Units=km,switch=T !numEQ 
new line.CTR6536743 bus1=BMT2006536212.1.2.3,bus2=BMT2389067035.1.2.3,Phases=3,LineCode=tieSwitch,Length=0.001,Units=km,switch=T !numEQ 
new line.CTR6545 bus1=BMT124405943.1.2.3,bus2=BMT124408043.1.2.3,Phases=3,LineCode=tieSwitch,Length=0.001,Units=km,switch=T !numEQ 135117
new line.CTR72485 bus1=BMT124408358.1.2.3,bus2=BMT124408372.1.2.3,Phases=3,LineCode=tieSwitch,Length=0.001,Units=km,switch=T !numEQ 79750
new line.CTR72492 bus1=BMT124408239.1.2.3,bus2=BMT167002523.1.2.3,Phases=3,LineCode=tieSwitch,Length=0.001,Units=km,switch=T !numEQ 239290
new line.CTR77791 bus1=BMT124406461.1.2.3,bus2=BMT124406503.1.2.3,Phases=3,LineCode=tieSwitch,Length=0.001,Units=km,switch=T !numEQ 292921
new line.CTR77847 bus1=BMT124406573.1.2.3,bus2=BMT143538910.1.2.3,Phases=3,LineCode=tieSwitch,Length=0.001,Units=km,switch=T !numEQ 44166
new line.CTR78526 bus1=BMT124413706.3,bus2=BMT155363734.3,Phases=1,LineCode=tieSwitch1,Length=0.001,Units=km,switch=T !numEQ 239069
new line.CTR78533 bus1=BMT124412733.1.2.3,bus2=BMT172724228.1.2.3,Phases=3,LineCode=tieSwitch,Length=0.001,Units=km,switch=T !numEQ 47171
new line.CTR83888 bus1=BMT124410031.1,bus2=BMT124410101.1,Phases=1,LineCode=tieSwitch1,Length=0.001,Units=km,switch=T !numEQ 47639
new line.CTR84014 bus1=BMT124417059.3,bus2=BMT124417479.3,Phases=1,LineCode=tieSwitch1,Length=0.001,Units=km,switch=T !numEQ 45752
new line.CTR848047 bus1=BMT150155199.1,bus2=BMT159890630.1,Phases=1,LineCode=tieSwitch1,Length=0.001,Units=km,switch=T !numEQ 377750
new line.CTR863369 bus1=BMT153730404.3,bus2=BMT159943448.3,Phases=1,LineCode=tieSwitch1,Length=0.001,Units=km,switch=T !numEQ 234898
new line.CTR87129 bus1=BMT124407665.1.2.3,bus2=BMT159349707.1.2.3,Phases=3,LineCode=tieSwitch,Length=0.001,Units=km,switch=T !numEQ 174830
new line.CTR871596 bus1=BMT156196632.3,bus2=BMT166956641.3,Phases=1,LineCode=tieSwitch1,Length=0.001,Units=km,switch=T !numEQ 158250
new line.CTR87262 bus1=BMT124406272.1.2.3,bus2=BMT134104632.1.2.3,Phases=3,LineCode=tieSwitch,Length=0.001,Units=km,switch=T !numEQ 103735
new line.CTR881143 bus1=BMT159326325.3,bus2=BMT159326327.3,Phases=1,LineCode=tieSwitch1,Length=0.001,Units=km,switch=T !numEQ 252765
new line.CTR881209 bus1=BMT159349709.1.2.3,bus2=BMT159349710.1.2.3,Phases=3,LineCode=tieSwitch,Length=0.001,Units=km,switch=T !numEQ 258446
new line.CTR901095 bus1=BMT166983390.1.2.3,bus2=BMT166983393.1.2.3,Phases=3,LineCode=tieSwitch,Length=0.001,Units=km,switch=T !numEQ 266682
new line.CTR91315 bus1=BMT162674302.2,bus2=BMT163619823.2,Phases=1,LineCode=tieSwitch1,Length=0.001,Units=km,switch=T !numEQ 207200
new line.CTR96530 bus1=BMT162662150.2,bus2=BMT162662152.2,Phases=1,LineCode=tieSwitch1,Length=0.001,Units=km,switch=T !numEQ 172894
new line.CTR96593 bus1=BMT124409002.1,bus2=BMT124409030.1,Phases=1,LineCode=tieSwitch1,Length=0.001,Units=km,switch=T !numEQ 172396
new line.CTRR1862 bus1=BMT141587114.1.2.3,bus2=BMT170755024.1.2.3,Phases=3,LineCode=tieSwitch,Length=0.001,Units=km,switch=T !numEQ 47019
new line.CTR13902 bus1=BMT155623631.1.2.3,bus2=BMT124419327.1.2.3,Phases=3,LineCode=tieSwitch,Length=0.001,Units=km,switch=T !numEQ 103641
open line.CTR13902 term=1
new line.CTR140014 bus1=BMT124419173.1.2.3,bus2=BMT134101615.1.2.3,Phases=3,LineCode=tieSwitch,Length=0.001,Units=km,switch=T !numEQ 44161
new line.CTR169813 bus1=BMT124410108.1,bus2=BMT124410115.1,Phases=1,LineCode=tieSwitch1,Length=0.001,Units=km,switch=T !numEQ 64445
new line.CTR183757 bus1=BMT124418326.2,bus2=BMT169035142.2,Phases=1,LineCode=tieSwitch1,Length=0.001,Units=km,switch=T !numEQ 175251
new line.CTR197477 bus1=BMT152901613.3,bus2=BMT171435846.3,Phases=1,LineCode=tieSwitch1,Length=0.001,Units=km,switch=T !numEQ 221546
new line.CTR198555 bus1=BMT172824220.2,bus2=BMT172824225.2,Phases=1,LineCode=tieSwitch1,Length=0.001,Units=km,switch=T !numEQ 221560
new line.CTR198646 bus1=BMT160650077.2,bus2=BMT158080318.2,Phases=1,LineCode=tieSwitch1,Length=0.001,Units=km,switch=T !numEQ 221541
new line.CTR375731 bus1=BMT124414945.2,bus2=BMT124415918.2,Phases=1,LineCode=tieSwitch1,Length=0.001,Units=km,switch=T !numEQ 292913
new line.CTR456791 bus1=BMT144941430.3,bus2=BMT160544004.3,Phases=1,LineCode=tieSwitch1,Length=0.001,Units=km,switch=T !numEQ 316241
new line.CTR457715 bus1=BMT149847756.1.2.3,bus2=BMT149852082.1.2.3,Phases=3,LineCode=tieSwitch,Length=0.001,Units=km,switch=T !numEQ 315086
new line.CTR457722 bus1=BMT149847772.1.2.3,bus2=BMT149852056.1.2.3,Phases=3,LineCode=tieSwitch,Length=0.001,Units=km,switch=T !numEQ 315087
new line.CTR4956 bus1=BMT124408932.3,bus2=BMT124411872.3,Phases=1,LineCode=tieSwitch1,Length=0.001,Units=km,switch=T !numEQ 45846
new line.CTR4970 bus1=BMT170685166.1.2.3,bus2=BMT170685540.1.2.3,Phases=3,LineCode=tieSwitch,Length=0.001,Units=km,switch=T !numEQ 307908
new line.CTR5642 bus1=BMT124418515.3,bus2=BMT156819587.3,Phases=1,LineCode=tieSwitch1,Length=0.001,Units=km,switch=T !numEQ 172700
new line.CTR74466 bus1=BMT124417031.3,bus2=BMT124417556.3,Phases=1,LineCode=tieSwitch1,Length=0.001,Units=km,switch=T !numEQ 44949
new line.CTR74473 bus1=BMT124416828.1,bus2=BMT171690415.1,Phases=1,LineCode=tieSwitch1,Length=0.001,Units=km,switch=T !numEQ 45751
new line.CTR81466 bus1=BMT124406636.1.2.3,bus2=BMT143536936.1.2.3,Phases=3,LineCode=tieSwitch,Length=0.001,Units=km,switch=T !numEQ 116495
new line.CTR870381 bus1=BMT155766702.1,bus2=BMT155767147.1,Phases=1,LineCode=tieSwitch1,Length=0.001,Units=km,switch=T !numEQ 238931
new line.CTR889040 bus1=BMT162661793.2,bus2=BMT162662141.2,Phases=1,LineCode=tieSwitch1,Length=0.001,Units=km,switch=T !numEQ 255545
new line.CTR171353 bus1=BMT171308824.1.2.3,bus2=BMT4319462.1.2.3,Phases=3,LineCode=tieSwitch,Length=0.001,Units=km,switch=T !numEQ 173912
open line.CTR171353 term=1
new line.CTR172165 bus1=BMT124414392.1.2.3,bus2=BMT124416772.1.2.3,Phases=3,LineCode=tieSwitch,Length=0.001,Units=km,switch=T !numEQ 44433
new line.CTR26369 bus1=BMT124412579.2,bus2=BMT124418053.2,Phases=1,LineCode=tieSwitch1,Length=0.001,Units=km,switch=T !numEQ 172795
new line.CTR320466 bus1=BMT124417990.3,bus2=BMT124418032.3,Phases=1,LineCode=tieSwitch1,Length=0.001,Units=km,switch=T !numEQ 226700
new line.CTR438486 bus1=BMT140271926.1.2.3,bus2=BMT172726699.1.2.3,Phases=3,LineCode=tieSwitch,Length=0.001,Units=km,switch=T !numEQ 311101
new line.CTR66605 bus1=BMT124406328.1.2.3,bus2=BMT165920944.1.2.3,Phases=3,LineCode=tieSwitch,Length=0.001,Units=km,switch=T !numEQ 44512
new line.CTR66619 bus1=BMT124409100.1.2.3,bus2=BMT124406370.1.2.3,Phases=3,LineCode=tieSwitch,Length=0.001,Units=km,switch=T !numEQ 47959
open line.CTR66619 term=1
new line.CTR66682 bus1=BMT124411830.1.2.3,bus2=BMT124411851.1.2.3,Phases=3,LineCode=tieSwitch,Length=0.001,Units=km,switch=T !numEQ 172921
new line.CTR80934 bus1=BMT124409919.1,bus2=BMT124410164.1,Phases=1,LineCode=tieSwitch1,Length=0.001,Units=km,switch=T !numEQ 79848
new line.CTR868874 bus1=BMT155335710.1.2.3,bus2=BMT155335712.1.2.3,Phases=3,LineCode=tieSwitch,Length=0.001,Units=km,switch=T !numEQ 239067
new line.CTR868991 bus1=BMT155363845.1.2.3,bus2=BMT158424018.1.2.3,Phases=3,LineCode=tieSwitch,Length=0.001,Units=km,switch=T !numEQ 239071
new line.CTR868993 bus1=BMT155363995.1.2.3,bus2=BMT155363996.1.2.3,Phases=3,LineCode=tieSwitch,Length=0.001,Units=km,switch=T !numEQ 239066
new line.CTR91763 bus1=BMT124414833.2,bus2=BMT169537921.2,Phases=1,LineCode=tieSwitch1,Length=0.001,Units=km,switch=T !numEQ 204809
new line.CTR91770 bus1=BMT159317533.2,bus2=BMT166444230.2,Phases=1,LineCode=tieSwitch1,Length=0.001,Units=km,switch=T !numEQ 204815
new line.CTR918196 bus1=BMT172724230.1.2.3,bus2=BMT172724394.1.2.3,Phases=3,LineCode=tieSwitch,Length=0.001,Units=km,switch=T !numEQ 265238
new line.CTR918199 bus1=BMT172724369.1,bus2=BMT172724393.1,Phases=1,LineCode=tieSwitch1,Length=0.001,Units=km,switch=T !numEQ 265227
new line.CTR918881 bus1=BMT172915302.1.2.3,bus2=BMT172915304.1.2.3,Phases=3,LineCode=tieSwitch,Length=0.001,Units=km,switch=T !numEQ 324805
new line.CTRR3311 bus1=BMT124406244.1.2.3,bus2=BMT154231003.1.2.3,Phases=3,LineCode=tieSwitch,Length=0.001,Units=km,switch=T !numEQ 205392
new line.CTRR33112 bus1=BMT152288138.1,bus2=BMT152288346.1,Phases=1,LineCode=tieSwitch1,Length=0.001,Units=km,switch=T !numEQ 316166
new line.CTRR34248 bus1=BMT124414364.1.2.3,bus2=BMT156806393.1.2.3,Phases=3,LineCode=tieSwitch,Length=0.001,Units=km,switch=T !numEQ 239070
new line.CTRR34610 bus1=BMT156349897.3,bus2=BMT169036703.3,Phases=1,LineCode=tieSwitch1,Length=0.001,Units=km,switch=T !numEQ 316160
new line.CTR105371 bus1=BMT133255322.1.2.3,bus2=BMT124408477.1.2.3,Phases=3,LineCode=tieSwitch,Length=0.001,Units=km,switch=T !numEQ 291370
open line.CTR105371 term=1
new line.CTR119140 bus1=BMT124407672.1.2.3,bus2=BMT124408008.1.2.3,Phases=3,LineCode=tieSwitch,Length=0.001,Units=km,switch=T !numEQ 173889
new line.CTR148204 bus1=BMT173152171.1.2.3,bus2=BMT124406034.1.2.3,Phases=3,LineCode=tieSwitch,Length=0.001,Units=km,switch=T !numEQ 44900
open line.CTR148204 term=1
new line.CTR357979 bus1=BMT124408421.1.2.3,bus2=BMT133255273.1.2.3,Phases=3,LineCode=tieSwitch,Length=0.001,Units=km,switch=T !numEQ 227405
new line.CTR397214 bus1=BMT128740756.1.2.3,bus2=BMT159756882.1.2.3,Phases=3,LineCode=tieSwitch,Length=0.001,Units=km,switch=T !numEQ 292920
new line.CTR48951 bus1=BMT124408351.1.2.3,bus2=BMT157338161.1.2.3,Phases=3,LineCode=tieSwitch,Length=0.001,Units=km,switch=T !numEQ 44974
new line.CTR4928 bus1=BMT124408862.1,bus2=BMT163600862.1,Phases=1,LineCode=tieSwitch1,Length=0.001,Units=km,switch=T !numEQ 45801
new line.CTR74746 bus1=BMT124408211.1.2.3,bus2=BMT124419544.1.2.3,Phases=3,LineCode=tieSwitch,Length=0.001,Units=km,switch=T !numEQ 44226
new line.CTR82502 bus1=BMT124408631.1.2.3,bus2=BMT172725180.1.2.3,Phases=3,LineCode=tieSwitch,Length=0.001,Units=km,switch=T !numEQ 173715
new line.CTR858176 bus1=BMT152288351.1,bus2=BMT153132951.1,Phases=1,LineCode=tieSwitch1,Length=0.001,Units=km,switch=T !numEQ 158243
new line.CTR872997 bus1=BMT156632389.1.2.3,bus2=BMT164138539.1.2.3,Phases=3,LineCode=tieSwitch,Length=0.001,Units=km,switch=T !numEQ 265669
new line.CTR906991 bus1=BMT169051310.1.2.3,bus2=BMT169052224.1.2.3,Phases=3,LineCode=tieSwitch,Length=0.001,Units=km,switch=T !numEQ 272070
new line.CTR907537 bus1=BMT169268108.1,bus2=BMT169268110.1,Phases=1,LineCode=tieSwitch1,Length=0.001,Units=km,switch=T !numEQ 277771
new line.CTR94360 bus1=BMT155363684.2,bus2=BMT155363696.2,Phases=1,LineCode=tieSwitch1,Length=0.001,Units=km,switch=T !numEQ 204819
new line.CTR109669 bus1=BMT124408904.1,bus2=BMT150157742.1,Phases=1,LineCode=tieSwitch1,Length=0.001,Units=km,switch=T !numEQ 47988
new line.CTR122423 bus1=BMT124412152.1.2.3,bus2=BMT124418823.1.2.3,Phases=3,LineCode=tieSwitch,Length=0.001,Units=km,switch=T !numEQ 103711
new line.CTR123375 bus1=BMT124407686.1.2.3,bus2=BMT162346810.1.2.3,Phases=3,LineCode=tieSwitch,Length=0.001,Units=km,switch=T !numEQ 44337
new line.CTR136892 bus1=BMT124411263.2,bus2=BMT151834501.2,Phases=1,LineCode=tieSwitch1,Length=0.001,Units=km,switch=T !numEQ 143694
new line.CTR136906 bus1=BMT124416835.3,bus2=BMT124416898.3,Phases=1,LineCode=tieSwitch1,Length=0.001,Units=km,switch=T !numEQ 128323
new line.CTR151963 bus1=BMT124409499.2,bus2=BMT165268077.2,Phases=1,LineCode=tieSwitch1,Length=0.001,Units=km,switch=T !numEQ 15483
new line.CTR153167 bus1=BMT124412026.2,bus2=BMT124412054.2,Phases=1,LineCode=tieSwitch1,Length=0.001,Units=km,switch=T !numEQ 172545
new line.CTR167874 bus1=BMT124409079.1,bus2=BMT153665238.1,Phases=1,LineCode=tieSwitch1,Length=0.001,Units=km,switch=T !numEQ 172334
new line.CTR195699 bus1=BMT124414973.2,bus2=BMT124415890.2,Phases=1,LineCode=tieSwitch1,Length=0.001,Units=km,switch=T !numEQ 222770
new line.CTR196049 bus1=BMT124415085.2,bus2=BMT163831022.2,Phases=1,LineCode=tieSwitch1,Length=0.001,Units=km,switch=T !numEQ 221559
new line.CTR407931 bus1=BMT132487891.1.2.3,bus2=BMT166983386.1.2.3,Phases=3,LineCode=tieSwitch,Length=0.001,Units=km,switch=T !numEQ 292426
new line.CTR407952 bus1=BMT143552280.1.2.3,bus2=BMT132492070.1.2.3,Phases=3,LineCode=tieSwitch,Length=0.001,Units=km,switch=T !numEQ 292433
open line.CTR407952 term=1
new line.CTR50841 bus1=BMT124407735.1,bus2=BMT150594852.1,Phases=1,LineCode=tieSwitch1,Length=0.001,Units=km,switch=T !numEQ 103674
new line.CTR75957 bus1=BMT124409240.3,bus2=BMT124411718.3,Phases=1,LineCode=tieSwitch1,Length=0.001,Units=km,switch=T !numEQ 135666
new line.CTR889103 bus1=BMT162676393.2,bus2=BMT163619833.2,Phases=1,LineCode=tieSwitch1,Length=0.001,Units=km,switch=T !numEQ 266667
new line.CTR89012 bus1=BMT124409856.3,bus2=BMT154278599.3,Phases=1,LineCode=tieSwitch1,Length=0.001,Units=km,switch=T !numEQ 47582
new line.CTR909930 bus1=BMT170058476.1,bus2=BMT170059050.1,Phases=1,LineCode=tieSwitch1,Length=0.001,Units=km,switch=T !numEQ 280158
new line.CTR96824 bus1=BMT124418830.1,bus2=BMT169268107.1,Phases=1,LineCode=tieSwitch1,Length=0.001,Units=km,switch=T !numEQ 172770
new line.CTRR39105 bus1=BMT165476915.3,bus2=BMT170219018.3,Phases=1,LineCode=tieSwitch1,Length=0.001,Units=km,switch=T !numEQ 265228
new line.CTRR39219 bus1=BMT165634411.1.2.3,bus2=BMT165634217.1.2.3,Phases=3,LineCode=tieSwitch,Length=0.001,Units=km,switch=T !numEQ 296408
open line.CTRR39219 term=1
new line.CTRR39256 bus1=BMT165683337.1.2.3,bus2=BMT167002112.1.2.3,Phases=3,LineCode=tieSwitch,Length=0.001,Units=km,switch=T !numEQ 265226
new line.CTR895589 bus1=BMT169537942.2,bus2=BMT164992946.2,Phases=1,LineCode=tieSwitch1,Length=0.001,Units=km,switch=T !numEQ 265225
open line.CTR895589 term=1
new line.CTR910474 bus1=BMT170227263.1.2.3,bus2=BMT172100937.1.2.3,Phases=3,LineCode=tieSwitch,Length=0.001,Units=km,switch=T !numEQ 277747
new line.CTR911435 bus1=BMT170571756.1.2.3,bus2=BMT170571763.1.2.3,Phases=3,LineCode=tieSwitch,Length=0.001,Units=km,switch=T !numEQ 255529
new line.CTR911801 bus1=BMT170685541.1.2.3,bus2=BMT170686151.1.2.3,Phases=3,LineCode=tieSwitch,Length=0.001,Units=km,switch=T !numEQ 279118
new line.CTRR40735 bus1=BMT170755032.1.2.3,bus2=BMT158733833.1.2.3,Phases=3,LineCode=tieSwitch,Length=0.001,Units=km,switch=T !numEQ 239299
open line.CTRR40735 term=1